/*--------------------------------*- C++ -*----------------------------------*\
| =========                 |                                                 |
| \\      /  F ield         | OpenFOAM: The Open Source CFD Toolbox           |
|  \\    /   O peration     | Version:  v2106                                 |
|   \\  /    A nd           | Website:  www.openfoam.com                      |
|    \\/     M anipulation  |                                                 |
\*---------------------------------------------------------------------------*/
FoamFile
{
    version     2.0;
    format      ascii;
    class       dictionary;
    object      thermophysicalProperties;
}
// * * * * * * * * * * * * * * * * * * * * * * * * * * * * * * * * * * * * * //

thermoType
{
    type            hePsiThermo;
    mixture         reactingMixture;
    transport       sutherland;
    thermo          janaf;
    energy          sensibleEnthalpy;
    equationOfState perfectGas;
    specie          specie;
}

// FOAMCHEMISTRY FOR CHEMISTRY
/*chemistryReader     foamChemistryReader;
foamChemistryFile   "<constant>/foam.inp";
foamChemistryThermoFile "<constant>/foam.dat";*/

// FOAMCHEMISTRY FOR CHEMISTRY COMPRESSIBLE GAS
chemistryReader	foamChemistryReader;
foamChemistryFile	"<constant>/reactions";
foamChemistryThermoFile "<constant>/thermo.compressibleGas"; 

// CHEMKIN FILES FOR CHEMISTRY
/*CHEMKINFile         "<case>/chemkin/chem.inp";
CHEMKINThermoFile   "<case>/chemkin/therm.dat";
CHEMKINTransportFile "<case>/chemkin/transportProperties";

newFormat       yes;*/

inertSpecie     N2;

liquids
{
    H2O;
}

solids
{}


// ************************************************************************* //
