/*--------------------------------*- C++ -*----------------------------------*\
| =========                 |                                                 |
| \\      /  F ield         | OpenFOAM: The Open Source CFD Toolbox           |
|  \\    /   O peration     | Version:  v2106                                 |
|   \\  /    A nd           | Website:  www.openfoam.com                      |
|    \\/     M anipulation  |                                                 |
\*---------------------------------------------------------------------------*/
FoamFile
{
    version     2.0;
    format      ascii;
    class       dictionary;
    object      sprayCloudProperties;
}
// * * * * * * * * * * * * * * * * * * * * * * * * * * * * * * * * * * * * * //

solution
{
    active          true;
    coupled         true;
    transient       yes;
    cellValueSourceCorrection on;
    maxCo           0.3;

    sourceTerms
    {
        schemes
        {
            rho             explicit 1;
            U               explicit 1;
            Yi              explicit 1;
            h               explicit 1;
            radiation       explicit 1;
        }
    }

    interpolationSchemes
    {
        rho             cell;
        U               cellPoint;
        thermo:mu       cell;
        T               cell;
        Cp              cell;
        kappa           cell;
        p               cell;
    }

    integrationSchemes
    {
        U               Euler;
        T               analytical;
    }
}


constantProperties
{
    T0              1900;

    // place holders for rho0 and Cp0
    // - reset from liquid properties using T0
    rho0            6890;
    Cp0             825;

    constantVolume  false;
}


subModels
{
    particleForces
    {
        sphereDrag;
    }

    injectionModels
    {
        model1
        {
            type            coneNozzleInjection;
            SOI             0;			// start of injection
            massTotal       8.0e-5;
            parcelBasisType mass;
            injectionMethod disc;
            flowType        flowRateAndDischarge;
            outerDiameter   3e-4;
            innerDiameter   0;
            duration        1.25e-3;
            position        (0 0.0295 0);
            direction       (0 -1 0);
            parcelsPerSecond 20000000;
	    flowRateProfile constant 10;

            Cd              constant 0.9;

            thetaInner      constant 0.0;
            thetaOuter      constant 10.0;

            sizeDistribution
            {
                type        uniform;
                uniformDistribution
                {
                    minValue        0.00015;
                    maxValue        0.00015;
                    d               0.00015;
                    n               1;
                }
            }
        }
    }

    dispersionModel none;

    patchInteractionModel standardWallInteraction;

    heatTransferModel RanzMarshall;

    compositionModel singlePhaseMixture;

    phaseChangeModel none; //liquidEvaporationBoil;

    surfaceFilmModel none;

    atomizationModel none;

    breakupModel     none;	//ReitzDiwakar; // ReitzKHRT;

    stochasticCollisionModel none;

    radiation       off;

    standardWallInteractionCoeffs
    {
        type            rebound;
    }

    RanzMarshallCoeffs
    {
        BirdCorrection  true;
    }

    singlePhaseMixtureCoeffs
    {
        phases
        (
            liquid
            {
                Fe               1;
            }
        );
    }

    /*liquidEvaporationBoilCoeffs
    {
        enthalpyTransfer enthalpyDifference;

        activeLiquids    ( H2O );
    }*/

    ReitzDiwakarCoeffs
    {
        solveOscillationEq yes;
        Cbag            6;
        Cb              0.785;
        Cstrip          0.5;
        Cs              10;
    }

/*
    ReitzKHRTCoeffs
    {
        solveOscillationEq yes;
        B0              0.61;
        B1              40;
        Ctau            1;
        CRT             0.1;
        msLimit         0.2;
        WeberLimit      6;
    }
*/
    TABCoeffs
    {
        y0              0;
        yDot0           0;
        Cmu             10;
        Comega          8;
        WeCrit          12;
    }
}


cloudFunctions
{
    WeberNumber1
    {
        type    WeberNumber;
    }

    ReynoldsNumber1
    {
        type    ReynoldsNumber;
    }

    NusseltNumber1
    {
        type    NusseltNumber;
    }

    HeatTransferCoeff1
    {
        type    HeatTransferCoeff;
    }
}


// ************************************************************************* //
