/*--------------------------------*- C++ -*----------------------------------*\
| =========                 |                                                 |
| \\      /  F ield         | OpenFOAM: The Open Source CFD Toolbox           |
|  \\    /   O peration     | Version:  v2106                                 |
|   \\  /    A nd           | Website:  www.openfoam.com                      |
|    \\/     M anipulation  |                                                 |
\*---------------------------------------------------------------------------*/
FoamFile
{
    version     2.0;
    format      ascii;
    class       dictionary;
    object      sprayCloudProperties;
}
// * * * * * * * * * * * * * * * * * * * * * * * * * * * * * * * * * * * * * //

solution
{
    active          true;
    coupled         true;
    transient       yes;
    cellValueSourceCorrection on;
    maxCo           0.3;

    sourceTerms
    {
        schemes
        {
            rho             explicit 1;
            U               explicit 1;
            Yi              explicit 1;
            h               explicit 1;
            radiation       explicit 1;
        }
    }

    interpolationSchemes
    {
        rho             cell;
        U               cellPoint;
        thermo:mu       cell;
        T               cell;
        Cp              cell;
        kappa           cell;
        p               cell;
    }

    integrationSchemes
    {
        U               Euler;
        T               analytical;
    }
}


constantProperties
{
    T0              300;//1900;

    // place holders for rho0 and Cp0
    // - reset from liquid properties using T0
    rho0            842;//6890;
    Cp0             825;

    constantVolume  true;
}


subModels
{
    particleForces
    {
        sphereDrag;
        gravity;
    }

    injectionModels
    {
    
        model1
        {
        
            type            coneNozzleInjection;
            SOI             3e-3;//3e-03;				// start of injection if velocity is at 200 m/s, after 10 timesteps.
            massTotal       2.165995140561160e-09;//1.299597084336696e-07; //Benz 
            parcelBasisType mass;				
            injectionMethod disc;
            flowType        constantVelocity; 		//flowRateAndDischarge
            UMag            16; 				//Same value as in Paper [16]
            outerDiameter   170e-6;//3e-4;
            innerDiameter   0;
            duration        2e-4;//2e-3;
            position        (0 -0.0047625 0.055); //(0 -0.0047625 0.055);
            direction       (0 1 0);
            parcelsPerSecond 5e3;//5e3;
            //nParticle        1;
            
	    flowRateProfile constant 1;//10;

            Cd              constant 0.9; //0.9


// Inner and outer half-cone angles
            thetaInner      constant 0.0;
            thetaOuter      constant 0.0;
            
	 
            sizeDistribution
            {
                type        uniform;
                uniformDistribution
                {
                    minValue        0.00017;
                    maxValue        0.00017;
                    d               0.00017;
                    n               1;
                }
            }
          }
                       
    }

    dispersionModel none;

    patchInteractionModel standardWallInteraction;

    heatTransferModel none;//RanzMarshall;

    compositionModel singlePhaseMixture;

    phaseChangeModel none; //liquidEvaporationBoil;

    surfaceFilmModel none;

    atomizationModel none;

    breakupModel     KelvinHelmholtz;//TAB;	//ReitzDiwakar; // ReitzKHRT;
    
    stochasticCollisionModel none;

    radiation       off;

    standardWallInteractionCoeffs
    {
        type            escape;//rebound;
    }

    RanzMarshallCoeffs
    {
        BirdCorrection  true;
    }

    singlePhaseMixtureCoeffs
    {
        phases
        (
            liquid
            {
                //Fe               1;
                //H2O	 	1;
                Benz		1;
            }
        );
    }

    /*liquidEvaporationBoilCoeffs
    {
        enthalpyTransfer enthalpyDifference;

        activeLiquids    ( H2O );
    }*/

    ReitzDiwakarCoeffs
    {
        solveOscillationEq yes;
        Cbag            6;
        Cb              0.785;
        Cstrip          0.5;
        Cs              10;
    }


    KelvinHelmholtzCoeffs
    {
        solveOscillationEq yes;
        B0              0.61;
        B1              1.73;
        Ctau            1;
        CRT             0.1;
        msLimit         0.03;
        WeberLimit      6;//6;
    }

    ReitzKHRTCoeffs
    {
        solveOscillationEq yes;
        B0              0.61;
        B1              1.73;//1.73;
        Ctau            1;
        CRT             0.1;
        msLimit         0.03;//0.03;
        WeberLimit      6;//6;
    }

    TABCoeffs
    {
    
        solveOscillationEq no;        
        y0              0;
        yDot0           0;           
        Cmu             5;//10;  
        Comega          8;         
        WeCrit          6;
        SMDCalculationMethod 	method1;
    }
}


cloudFunctions
{
    WeberNumber1
    {
        type    WeberNumber;
    }

    ReynoldsNumber1
    {
        type    ReynoldsNumber;
    }

    NusseltNumber1
    {
        type    NusseltNumber;
    }

    HeatTransferCoeff1
    {
        type    HeatTransferCoeff;
    }
}


// ************************************************************************* //

